Version 4
SHEET 1 916 680
WIRE -80 -160 -224 -160
WIRE 256 -160 -80 -160
WIRE 256 -128 256 -160
WIRE 208 -48 48 -48
WIRE 48 -32 48 -48
WIRE -224 64 -224 -160
WIRE 48 64 48 48
WIRE 256 64 256 -32
WIRE 256 64 48 64
WIRE -80 80 -80 -160
WIRE 256 112 256 64
WIRE 400 112 256 112
WIRE 592 112 480 112
WIRE 624 112 592 112
WIRE 256 144 256 112
WIRE 624 208 624 112
WIRE 208 224 48 224
WIRE 48 240 48 224
WIRE 48 336 48 320
WIRE 256 336 256 240
WIRE 256 336 48 336
WIRE -224 384 -224 144
WIRE -80 384 -80 144
WIRE -80 384 -224 384
WIRE 256 384 256 336
WIRE 256 384 -80 384
WIRE 624 384 624 288
WIRE 624 384 256 384
WIRE -224 464 -224 384
FLAG -224 464 0
FLAG -80 -160 IN
FLAG 592 112 OUT
FLAG 256 112 MOD
SYMBOL voltage -224 48 R0
WINDOW 123 0 0 Left 2
WINDOW 39 0 0 Left 2
SYMATTR InstName V1
SYMATTR Value 30
SYMBOL voltage 48 -48 R0
WINDOW 123 0 0 Left 2
WINDOW 39 0 0 Left 2
WINDOW 3 28 89 Left 2
SYMATTR Value PULSE(0 12 0 0 0 {D*Ts} {Ts})
SYMATTR InstName V2
SYMBOL nmos 208 -128 R0
WINDOW 0 66 19 Left 2
WINDOW 3 64 41 Left 2
SYMATTR InstName M2
SYMATTR Value BSZ036NE2LS
SYMBOL ind 384 128 R270
WINDOW 0 37 121 VTop 2
WINDOW 3 5 56 VBottom 2
SYMATTR InstName L1
SYMATTR Value {Lext}
SYMBOL res 608 192 R0
SYMATTR InstName R1
SYMATTR Value 150
SYMBOL nmos 208 144 R0
WINDOW 0 68 19 Left 2
WINDOW 3 61 52 Left 2
SYMATTR InstName M1
SYMATTR Value BSZ036NE2LS
SYMBOL voltage 48 224 R0
WINDOW 123 0 0 Left 2
WINDOW 39 0 0 Left 2
WINDOW 3 37 73 Left 2
SYMATTR Value PULSE(0 12 {D*Ts} 0 0 {(1-D)*Ts} {Ts})
SYMATTR InstName V3
SYMBOL cap -96 80 R0
SYMATTR InstName C1
SYMATTR Value 33µ
TEXT -616 -72 Left 2 !.tran 4m startup
TEXT -608 -32 Left 2 !.param D = 0.5\n.param Ts=100u\n.param Lext = 10.4m
